/batch
/config,noeldb,1     ! force off writing results to database
*get,_wallstrt,active,,time,wall
! ANSYS input file written by Workbench version 2026 R1
! File used for geometry attach: C:\Users\ricca\OneDrive - University of Pisa\III - Nonlinear analysis through FEM\7-Curve fitting\Workshop7A\WS4a-hyper_files\dp0\SYS\DM\SYS.agdb
/title,WS4a-hyper--Static Structural (A5)
! ****** Begin Custom Load Command Snippet ******
/COM, ACT Extensions:
/COM,     LSDYNA, 2026.1
/COM,     5f463412-bd3e-484b-87e7-cbc0a665e474, wbex
/COM,     ANSYSMotion, 2026.1
/COM,     20180725-3f81-49eb-9f31-41364844c769, wbex
! ****** End   Custom Load Command Snippet ******
*DIM,_wb_ProjectScratch_dir,string,248
_wb_ProjectScratch_dir(1) = 'C:\Users\ricca\OneDrive - University of Pisa\III - Nonlinear analysis through FEM\7-Curve fitting\Workshop7A\_ProjectScratch\ScrAB2A\'
*DIM,_wb_SolverFiles_dir,string,248
_wb_SolverFiles_dir(1) = 'C:\Users\ricca\OneDrive - University of Pisa\III - Nonlinear analysis through FEM\7-Curve fitting\Workshop7A\WS4a-hyper_files\dp0\SYS\MECH\'
*DIM,_wb_userfiles_dir,string,248
_wb_userfiles_dir(1) = 'C:\Users\ricca\OneDrive - University of Pisa\III - Nonlinear analysis through FEM\7-Curve fitting\Workshop7A\WS4a-hyper_files\user_files\'
/com,--- Data in consistent BIN units. See Solving Units in the help system for more information.
/units,BIN
/nopr
/wb,file,start              !  signify a WB generated input file
/prep7
! Turn off shape checking because checks already performed inside WB mesher.
! See help system for more information.
SHPP,OFF,,NOWARN
/nolist
etcon,set             ! allow ANSYS to choose best KEYOP's for 180x elements, resets any applicable keyopt to MAPDL defaults
/com,*********** Send User Defined Coordinate System(s) ***********
csys,0
/com,*********** Nodes for the whole assembly ***********
nblock,3,,3639
(1i9,3e20.9e3)
        1     2.209523755E+00     4.101049869E-01     1.476377953E-02
        2     2.155267982E+00     4.101049869E-01     1.476377953E-02
        3     2.101012209E+00     4.101049869E-01     1.476377953E-02
        4     2.046756436E+00     4.101049869E-01     1.476377953E-02
        5     1.992500663E+00     4.101049869E-01     1.476377953E-02
        6     1.938244890E+00     4.101049869E-01     1.476377953E-02
        7     1.883989116E+00     4.101049869E-01     1.476377953E-02
        8     1.829733343E+00     4.101049869E-01     1.476377953E-02
        9     1.775477570E+00     4.101049869E-01     1.476377953E-02
       10     2.209523757E+00     3.280840067E-01     1.476377953E-02
       11     2.155267986E+00     3.280840067E-01     1.476377953E-02
       12     2.101012215E+00     3.280840067E-01     1.476377953E-02
       13     2.046756445E+00     3.280840067E-01     1.476377953E-02
       14     1.992500674E+00     3.280840067E-01     1.476377953E-02
       15     1.938244903E+00     3.280840067E-01     1.476377953E-02
       16     1.883989132E+00     3.280840067E-01     1.476377953E-02
       17     1.829733362E+00     3.280840067E-01     1.476377953E-02
       18     1.775477591E+00     3.280840067E-01     1.476377953E-02
       19     2.209523755E+00     2.460629921E-01     1.476377953E-02
       20     2.155267982E+00     2.460629921E-01     1.476377953E-02
! ... 3290 like lines cut
/wb,elem,start            !  set before creation of elements
/com,*********** Elements for Body 1 'Solid' ***********
et,1,186
keyo,1,2,1          ! set full integration on SOLID186
MAT,1 $ TYPE,1 $ REAL,1 $ SECNUM,1 $ ESYS,0    ! ELEMNODES = 20
eblock,21,COMPACT,,120
(21i9)
        1        1      752      746      726      250      753      747      743      951     3011     2978      950     1925     3012     3004     1924      948     3022     3010     2977
        2        1      726      746      752      411      479      480      465      950     2978     3011      951     2291     2440     2412     2290      949     2441     2442     2413
        3        1       10      751      752      250      241      754      753      947      996     3020      951     1905     1906     3023     1925      948      994     3021     3022
        4        1      752      751       10      411      465      466      420      951     3020      996      947     2290     2411     2318     2289      949     2413     2415      995
        5       10       19      750      751      241      232      755      754      993     1033     3018      996     1886     1887     3024     1906      994     1031     3019     3021
        6       10      751      750       19      420      466      467      429      996     3018     1033      993     2318     2414     2337     2317      995     2415     2417     1032
        7       19       28      749      750      232      223      756      755     1030     1070     3016     1033     1867     1868     3025     1887     1031     1068     3017     3019
        8       19      750      749       28      429      467      468      438     1033     3016     1070     1030     2337     2416     2356     2336     1032     2417     2419     1069
        9       28       37      748      749      223      214      757      756     1067     1106     3013     1070     1847     1848     3026     1868     1068     1104     3014     3017
       10       28      749      748       37      438      468      469      447     1070     3013     1106     1067     2356     2418     2375     2355     1069     2419     2421     1105
       11       37      760      759      748      214      769      758      757     1107     3030     3015     1106     1849     3029     3027     1848     1104     3032     3028     3014
       12       37      748      759      760      447      469      470      456     1106     3015     3030     1107     2375     2420     2393     2374     1105     2421     2422     2394
       13        1      726      727        2      250      743      742      249      950     2976      956      946     1924     3003     1923     1922      948     2977     2980      954
       14        1        2      727      726      411      412      478      479      946      956     2976      950     2288     2294     2438     2291      949      955     2439     2441
       15        1        2       11       10      250      249      240      241      946      953      992      947     1922     1904     1903     1905      948      954      999      994
       16        1       10       11        2      411      420      421      412      947      992      953      946     2289     2316     2293     2288      949      995     1000      955
       17       10       11       20       19      241      240      231      232      992      998     1029      993     1903     1885     1884     1886      994      999     1036     1031
       18       10       19       20       11      420      429      430      421      993     1029      998      992     2317     2335     2320     2316      995     1032     1037     1000
       19       19       20       29       28      232      231      222      223     1029     1035     1066     1030     1884     1866     1865     1867     1031     1036     1073     1068
       20       19       28       29       20      429      438      439      430     1030     1066     1035     1029     2336     2354     2339     2335     1032     1069     1074     1037
! ... 101 like lines cut
secnum,1    ! reset the section ID to default
! Material Id = {3C226952-9C99-45C0-A778-46D89367B31F}
/com,*********** Elements for Body 2 'Solid' ***********
et,2,186
keyo,2,2,1          ! set full integration on SOLID186
MAT,2 $ TYPE,2 $ REAL,1 $ SECNUM,2 $ ESYS,0    ! ELEMNODES = 20
eblock,21,COMPACT,,264
(21i9)
      121       46      878      877      834      355      887      876      875     1145     3210     3146     1144     2161     3208     3206     2160     1142     3213     3207     3145
      122       46      834      877      878      488      613      640      641     1144     3146     3210     1145     2465     2734     2793     2466     1143     2735     2795     2797
      123       46       67      879      878      355      334      886      887     1141     1250     3212     1145     2117     2118     3224     2161     1142     1248     3215     3213
      124       46      878      879       67      488      641      639      509     1145     3212     1250     1141     2466     2790     2528     2464     1143     2797     2792     1249
      125       67       88      880      879      334      313      885      886     1247     1335     3214     1250     2074     2075     3223     2118     1248     1333     3217     3215
      126       67      879      880       88      509      639      638      530     1250     3214     1335     1247     2528     2787     2570     2527     1249     2792     2789     1334
      127       88      109      881      880      313      292      884      885     1332     1420     3216     1335     2031     2032     3222     2075     1333     1418     3219     3217
      128       88      880      881      109      530      638      637      551     1335     3216     1420     1332     2570     2784     2612     2569     1334     2789     2786     1419
      129      109      130      882      881      292      271      883      884     1417     1505     3218     1420     1987     1989     3221     2032     1418     1502     3220     3219
      130      109      881      882      130      551      637      636      572     1420     3218     1505     1417     2612     2781     2654     2611     1419     2786     2783     1503
      131      130      797      807      882      271      798      806      883     1504     3092     3105     1505     1988     3094     3103     1989     1502     3091     3102     3220
      132      130      882      807      797      572      636      635      626     1505     3105     3092     1504     2654     2778     2761     2653     1503     2783     2780     2762
      133       46      834      835       47      355      875      874      354     1144     3144     1150     1140     2160     3205     2159     2158     1142     3145     3148     1148
      134       46       47      835      834      488      489      612      613     1140     1150     3144     1144     2463     2469     2732     2465     1143     1149     2733     2735
      135       46       47       68       67      355      354      333      334     1140     1147     1246     1141     2158     2116     2115     2117     1142     1148     1253     1248
      136       46       67       68       47      488      509      510      489     1141     1246     1147     1140     2464     2526     2468     2463     1143     1249     1254     1149
      137       67       68       89       88      334      333      312      313     1246     1252     1331     1247     2115     2073     2072     2074     1248     1253     1338     1333
      138       67       88       89       68      509      530      531      510     1247     1331     1252     1246     2527     2568     2530     2526     1249     1334     1339     1254
      139       88       89      110      109      313      312      291      292     1331     1337     1416     1332     2072     2030     2029     2031     1333     1338     1423     1418
      140       88      109      110       89      530      551      552      531     1332     1416     1337     1331     2569     2610     2572     2568     1334     1419     1424     1339
! ... 245 like lines cut
secnum,1    ! reset the section ID to default
! Material Id = {F4687661-7259-4B04-8258-F666DB87852D}
/com,*********** Elements for Body 3 'Solid' ***********
et,3,186
keyo,3,2,1          ! set full integration on SOLID186
MAT,3 $ TYPE,3 $ REAL,1 $ SECNUM,3 $ ESYS,0    ! ELEMNODES = 20
eblock,21,COMPACT,,144
(21i9)
      385      151      892      899      924      410      893      898      945     1590     3235     3244     1591     2286     3237     3243     2287     1588     3234     3242     3280
      386      151      924      899      892      642      707      719      720     1591     3244     3235     1590     2800     2939     2963     2801     1589     2940     2964     2966
      387      151      162      891      892      410      399      894      893     1587     1646     3232     1590     2263     2264     3236     2286     1588     1644     3233     3234
      388      151      892      891      162      642      720      721      653     1590     3232     1646     1587     2801     2965     2833     2799     1589     2966     2968     1645
      389      162      173      890      891      399      388      895      894     1643     1691     3230     1646     2240     2241     3238     2264     1644     1689     3231     3233
      390      162      891      890      173      653      721      722      664     1646     3230     1691     1643     2833     2967     2855     2832     1645     2968     2970     1690
      391      173      184      889      890      388      377      896      895     1688     1736     3228     1691     2217     2218     3239     2241     1689     1734     3229     3231
      392      173      890      889      184      664      722      723      675     1691     3228     1736     1688     2855     2969     2877     2854     1690     2970     2972     1735
      393      184      195      888      889      377      366      897      896     1733     1780     3225     1736     2193     2194     3240     2218     1734     1778     3226     3229
      394      184      889      888      195      675      723      724      686     1736     3225     1780     1733     2877     2971     2899     2876     1735     2972     2974     1779
      395      195      902      900      888      366      913      901      897     1781     3246     3227     1780     2195     3247     3241     2194     1778     3249     3245     3226
      396      195      888      900      902      686      724      725      708     1780     3227     3246     1781     2899     2973     2942     2898     1779     2974     2975     2943
      397      151      924      925      152      410      945      944      409     1591     3279     1596     1586     2287     3309     2285     2284     1588     3280     3282     1594
      398      151      152      925      924      642      643      706      707     1586     1596     3279     1591     2798     2804     2937     2800     1589     1595     2938     2940
      399      151      152      163      162      410      409      398      399     1586     1593     1642     1587     2284     2262     2261     2263     1588     1594     1649     1644
      400      151      162      163      152      642      653      654      643     1587     1642     1593     1586     2799     2831     2803     2798     1589     1645     1650     1595
      401      162      163      174      173      399      398      387      388     1642     1648     1687     1643     2261     2239     2238     2240     1644     1649     1694     1689
      402      162      173      174      163      653      664      665      654     1643     1687     1648     1642     2832     2853     2835     2831     1645     1690     1695     1650
      403      173      174      185      184      388      387      376      377     1687     1693     1732     1688     2238     2216     2215     2217     1689     1694     1739     1734
      404      173      184      185      174      664      675      676      665     1688     1732     1693     1687     2854     2875     2857     2853     1690     1735     1740     1695
! ... 125 like lines cut
secnum,1    ! reset the section ID to default
! Material Id = {DC3F2332-56A9-4B03-B09E-49C685302BC4}
/wb,elem,end               !  done creating elements
toffst,459.67,      ! Temperature offset from absolute zero
/com,*********** Set Reference Temperature ***********
tref,71.6
/wb,mat,start              !  starting to send materials
/com,*********** Send Materials ***********
MP,DENS,1,0.000734544492879577,	! slinch in^-3
MP,ALPX,1,6.66666666666667e-06,	! F^-1
MP,C,1,373722.969668162,	! in^2 s^-2 F^-1
MP,KXX,1,7.55607836445752,	! slinch in s^-3 F^-1
MP,RSVX,1,8.52348993288591,	! ohm cmil in^-1
MP,MURX,1,10000,

TB,HYPE,1,1,3,YEOH
TBDATA,1,101.1778793908,-35.5112881199046,18.3173066102531,0,0,0
MP,UVID,1,d4aa369d-c3bf-469e-9d1c-2c2a90b37665

MP,DENS,2,0.000734544492879577,	! slinch in^-3
MP,ALPX,2,6.66666666666667e-06,	! F^-1
MP,C,2,373722.969668162,	! in^2 s^-2 F^-1
MP,KXX,2,7.55607836445752,	! slinch in s^-3 F^-1
MP,RSVX,2,8.52348993288591,	! ohm cmil in^-1
MP,MURX,2,10000,

TB,HYPE,2,1,3,YEOH
TBDATA,1,101.1778793908,-35.5112881199046,18.3173066102531,0,0,0
MP,UVID,2,d4aa369d-c3bf-469e-9d1c-2c2a90b37665

MP,DENS,3,0.000734544492879577,	! slinch in^-3
MP,ALPX,3,6.66666666666667e-06,	! F^-1
MP,C,3,373722.969668162,	! in^2 s^-2 F^-1
MP,KXX,3,7.55607836445752,	! slinch in s^-3 F^-1
MP,RSVX,3,8.52348993288591,	! ohm cmil in^-1
MP,MURX,3,10000,

TB,HYPE,3,1,3,YEOH
TBDATA,1,101.1778793908,-35.5112881199046,18.3173066102531,0,0,0
MP,UVID,3,d4aa369d-c3bf-469e-9d1c-2c2a90b37665

/wb,mat,end                !  done sending materials
!************************* Model Summary ********************
! Solid,	Elastomers,	matid,	1
! Solid,	Elastomers,	matid,	2
! Solid,	Elastomers,	matid,	3
!************************* End Model Summary ********************
! get the diagonal of the bounding box. Needed later for other things
*get,_xmin,node,,mnloc,x
*get,_ymin,node,,mnloc,y
*get,_zmin,node,,mnloc,z
*get,_xmax,node,,mxloc,x
*get,_ymax,node,,mxloc,y
*get,_zmax,node,,mxloc,z
_ASMDIAG=(_xmax-_xmin)*(_xmax-_xmin)+(_ymax-_ymin)*(_ymax-_ymin)+(_zmax-_zmin)*(_zmax-_zmin)
_ASMDIAG=SQRT(_ASMDIAG)
/wb,contact,start          !  starting to send contact
/wb,contact,end            !  done creating contacts
/golist
/wb,load,start             !  starting to send loads
/com,********* Frictionless Supports X *********
CMBLOCK,_FRICSUX,NODE,        9
(8i10)
       719      -725       888      -901      2963     -2975      3225     -3242
      3245
cmsel,s,_FRICSUX
d,all,ux,0
nsel,all
/com,********* Frictionless Supports Y *********
CMBLOCK,_FRICSUY,NODE,       42
(8i10)
       456      -464       470       481       593      -613       640       697
      -707       719       758      -779       834      -877       898       899
       924      -945      2392     -2410      2422      2444      2445      2694
     -2735      2794      2795      2919     -2940      2964      3028     -3058
      3060      3062      3144     -3207      3209      3211      3242     -3244
      3279     -3309
cmsel,s,_FRICSUY
d,all,uy,0
nsel,all
/com,********* Frictionless Supports Z *********
CMBLOCK,_FRICSUZ,NODE,       70
(8i10)
       206      -410       735      -744       747       753      -758       769
      -778       785      -789       798      -806       809       816      -821
       823       829      -833       855      -876       883      -887       893
      -898       901       913      -923       935      -945      1822     -2287
      2995     -3004      3006      3007      3012      3023     -3027      3029
      3049     -3057      3059      3060      3072     -3075      3093     -3101
      3103      3104      3109      3122     -3127      3130      3140     -3143
      3186     -3206      3208      3209      3221     -3224      3236     -3241
      3243      3247      3269     -3278      3300     -3309
cmsel,s,_FRICSUZ
d,all,uz,0
nsel,all
/gst,on,on
fini
*get,_numnode,node,0,count
*get,_numelem,elem,0,count
*get, _MAXELEMNUM, elem, 0, NUM, MAX
*get, _MAXNODENUM, node, 0, NUM, MAX
*get, _MAXELEMTYPE, etyp, 0, NUM, MAX
*get, _MAXREALCONST, rcon, 0, NUM, MAX
/go
/wb,load,end               !  done creating loads
/com,--- Number of total nodes = %_numnode%
/com,--- Number of contact elements = 0
/com,--- Number of spring elements = 0
/com,--- Number of bearing elements = 0
/com,--- Number of solid elements = 528
/com,--- Number of condensed parts = 0
/com,--- Number of total elements = %_numelem%
*get,_wallbsol,active,,time,wall
/com,****************************************************************************
/com,*************************    SOLUTION       ********************************
/com,****************************************************************************
/solu
antype,0                   ! static analysis
nlgeom,on                  ! Turn on Large Deformation Effects
_thickRatio=  0     ! Ratio of thick parts in the model
eqsl,sparse,,,,,1
cntr,print,1               ! print out contact info and also make no initial contact an error
cncheck,dmp		!	Enable program controlled contact splitting for distributed memory parallel run
dmpoption,emat,no             ! Don't combine emat file for DANSYS
dmpoption,esav,no             ! Don't combine esav file for DANSYS
nldiag,cont,iter           ! print out contact info each equilibrium iteration
rescontrol,define,last,last,,dele	   ! Program Controlled
/com,****************************************************
/com,******************* SOLVE FOR LS 1 OF 1 ****************
/com,*** Set Displacements ***
CMBLOCK,_CM89UX_XP,NODE,       10
(8i10)
       465      -470       480       746      -759      2411     -2422      2442
      3010     -3028
cmsel,s,_CM89UX_XP
d,all,ux,1.96850393700787
nsel,all

/com,*** Component For All Non-Zero UX Displacements ***
cmsel,s,_CM89ux_xp
cm,_DISPNONZEROUX,NODE
nsel,all

/nopr
/gopr
autots,on                   ! User turned on automatic time stepping
nsub,10,50,5,OFF
time,1.
outres,erase
outres,all,none
outres,nsol,all,
outres,rsol,all
outres,eangl,all
outres,etmp,all
outres,veng,all
outres,nload,all,
outres,strs,all,
outres,bkstr,all,
outres,epel,all,
outres,eppl,all,
outres,cont,all,
outres,nldat,all,
stabilize,off                   ! Stabilization turned OFF by user
! *********** WB SOLVE COMMAND ***********
! check interactive state
*get,ANSINTER_,active,,int
*if,ANSINTER_,ne,0,then
/eof
*endif
solve
/com *************** Write FE CONNECTORS ********* 
CEWRITE,file,ce,,INTE
/com,****************************************************
/com,*************** FINISHED SOLVE FOR LS 1 *************
fini
save,file,db
*get,_wallasol,active,,time,wall
/nopr
*get,_numnode,node,0,count
*get,_numelem,elem,0,count
*get, _MAXELEMNUM, elem, 0, NUM, MAX
*get, _MAXNODENUM, node, 0, NUM, MAX,,,INTERNAL
*get, _MAXELEMTYPE, etyp, 0, NUM, MAX
*get, _MAXREALCONST, rcon, 0, NUM, MAX
*get,_NSOLTHREADS,active,0,ntfs
*get,_NSOLPROCESSES,active,0,npfs
/gopr
/post1
xmlo,ENCODING,ISO-8859-1
xmlo,parm
/xml,parm,xml
fini
/gopr
*get,_walldone,active,,time,wall
_preptime=(_wallbsol-_wallstrt)*3600
_solvtime=(_wallasol-_wallbsol)*3600
_posttime=(_walldone-_wallasol)*3600
_totaltim=(_walldone-_wallstrt)*3600
*get,_dlbratio,active,0,solu,dlbr
*get,_combtime,active,0,solu,comb
*get,_ssmode,active,0,solu,ssmm
*get,_ndofs,active,0,solu,ndof
*get,_sol_end_time,active,0,set,time
*if,_sol_end_time,eq,1.000000,then
/fclean				!clean distributed files
*endif
/com,--- Total number of nodes = %_numnode%
/com,--- Total number of elements = %_numelem%
/com,--- Element load balance ratio = %_dlbratio%
/com,--- Time to combine distributed files = %_combtime%
/com,--- Sparse memory mode = %_ssmode%
/com,--- Number of DOF = %_ndofs%
/wb,file,end               ! done with WB generated input
